data/irish_network/pylon_converted/SummerPeak2016_pylon.m
function mpc = SummerPeak2016_pylon

%% MATPOWER Case Format : Version 2
mpc.version = '2';

%%%%-----  Power Flow Data  -----%%%%
%%%% system MVA base
mpc.baseMVA = 100;

%%%% bus data
%%	bus_i	type	Pd	Qd	Gs	Bs	area	Vm	Va	baseKV	zone	Vmax	Vmin	lam_P	lam_Q	mu_Vmax	mu_Vmin
mpc.bus = [
	10	1	44.37	30.5	0	0	1	1.07037	-10.2858	38	1	1.1	0.9	0.0000	0.0000	0.0000	0.0000;
	11	1	29.74	21.12	0	0	1	1.05495	-9.3696	38	1	1.1	0.9	0.0000	0.0000	0.0000	0.0000;
	12	1	5.03	1.65	0	0	1	1.05514	-7.0662	38	1	1.1	0.9	0.0000	0.0000	0.0000	0.0000;
	13	1	8.45	2.9	0	0	1	1.07029	-7.2996	38	1	1.1	0.9	0.0000	0.0000	0.0000	0.0000;
	14	1	41.88	13.78	0	0	1	1.0467	-10.957	38	1	1.1	0.9	0.0000	0.0000	0.0000	0.0000;
	15	1	43.97	14.48	0	0	1	1.06217	-10.5935	38	1	1.1	0.9	0.0000	0.0000	0.0000	0.0000;
	1021	1	0	0	0	0	1	1.05386	-6.3964	110	1	1.1	0.9	0.0000	0.0000	0.0000	0.0000;
	1041	1	1.33	0.07	0	0	1	1.06508	-5.9939	110	1	1.1	0.9	0.0000	0.0000	0.0000	0.0000;
	1042	1	0	0	0	0	1	1.075	-3.9022	220	1	1.1	0.9	0.0000	0.0000	0.0000	0.0000;
	1052	1	0	0	0	0	1	1.07786	-3.2498	220	1	1.1	0.9	0.0000	0.0000	0.0000	0.0000;
	1061	1	0	0	0	0	1	1.05101	-8.1629	110	1	1.1	0.9	0.0000	0.0000	0.0000	0.0000;
	1062	1	0	0	0	0	1	1.075	-3.9022	220	1	1.1	0.9	0.0000	0.0000	0.0000	0.0000;
	1071	1	0	0	0	0	1	1.06247	-4.6642	110	1	1.1	0.9	0.0000	0.0000	0.0000	0.0000;
	1072	1	0	0	0	0	1	1.07493	-3.9119	220	1	1.1	0.9	0.0000	0.0000	0.0000	0.0000;
	1081	1	0	0	0	0	1	1.05628	-6.1808	110	1	1.1	0.9	0.0000	0.0000	0.0000	0.0000;
	1091	1	0	0	0	0	1	1.04582	-10.0027	110	1	1.1	0.9	0.0000	0.0000	0.0000	0.0000;
	1101	1	16.62	4.98	0	0	1	1.05492	-8.9257	110	1	1.1	0.9	0.0000	0.0000	0.0000	0.0000;
	1121	1	0	0	0	0	1	1.06984	-6.1009	110	1	1.1	0.9	0.0000	0.0000	0.0000	0.0000;
	1122	1	0	0	0	0	1	1.06882	-5.1449	220	1	1.1	0.9	0.0000	0.0000	0.0000	0.0000;
	1131	1	0	0	0	0	1	1.04982	1.1668	110	1	1.1	0.9	0.0000	0.0000	0.0000	0.0000;
	1141	1	0	0	0	0	1	1.05583	-7.1484	110	1	1.1	0.9	0.0000	0.0000	0.0000	0.0000;
	1151	1	0	0	0	0	1	1.04982	1.1668	110	1	1.1	0.9	0.0000	0.0000	0.0000	0.0000;
	1161	1	0	0	0	0	1	1.05	-1.7528	110	1	1.1	0.9	0.0000	0.0000	0.0000	0.0000;
	1181	1	0	0	0	0	1	1.04565	-10.6544	110	1	1.1	0.9	0.0000	0.0000	0.0000	0.0000;
	1201	1	0	0	0	0	1	1.05802	-7.2436	110	1	1.1	0.9	0.0000	0.0000	0.0000	0.0000;
	1211	1	0	0	0	0	1	1.05094	-0.3317	110	1	1.1	0.9	0.0000	0.0000	0.0000	0.0000;
	1212	1	0	0	0	0	1	1.0619	-1.191	220	1	1.1	0.9	0.0000	0.0000	0.0000	0.0000;
	1221	1	0	0	0	0	1	1.05784	-8.2883	110	1	1.1	0.9	0.0000	0.0000	0.0000	0.0000;
	1231	1	0	0	0	0	1	1.06837	-5.6847	110	1	1.1	0.9	0.0000	0.0000	0.0000	0.0000;
	1251	1	0	0	0	0	1	1.05933	-4.2433	110	1	1.1	0.9	0.0000	0.0000	0.0000	0.0000;
	1271	1	0	0	0	0	1	1.04951	-8.8282	110	1	1.1	0.9	0.0000	0.0000	0.0000	0.0000;
	1281	1	0	0	0	0	1	1.05526	-5.5345	110	1	1.1	0.9	0.0000	0.0000	0.0000	0.0000;
	1301	1	0	0	0	0	1	1.06348	-6.9423	110	1	1.1	0.9	0.0000	0.0000	0.0000	0.0000;
	1311	1	0	0	0	0	1	1.05428	0.899	110	1	1.1	0.9	0.0000	0.0000	0.0000	0.0000;
	1321	1	0	0	0	0	1	1.05578	-8.3093	110	1	1.1	0.9	0.0000	0.0000	0.0000	0.0000;
	1341	1	0	0	0	0	1	1.03874	-11.1807	110	1	1.1	0.9	0.0000	0.0000	0.0000	0.0000;
	1351	1	0	0	0	0	1	1.05537	-8.7704	110	1	1.1	0.9	0.0000	0.0000	0.0000	0.0000;
	1361	1	0	0	0	0	1	1.05368	-8.5098	110	1	1.1	0.9	0.0000	0.0000	0.0000	0.0000;
	1381	1	0	0	0	0	1	1.06027	-6.3008	110	1	1.1	0.9	0.0000	0.0000	0.0000	0.0000;
	1391	1	0	0	0	0	1	1.05971	-6.3849	110	1	1.1	0.9	0.0000	0.0000	0.0000	0.0000;
	1401	1	0	0	0	0	1	1.04335	-9.2695	110	1	1.1	0.9	0.0000	0.0000	0.0000	0.0000;
	1421	1	0	0	0	0	1	1.05802	-7.7313	110	1	1.1	0.9	0.0000	0.0000	0.0000	0.0000;
	1441	1	0	0	0	0	1	1.04828	-7.2209	110	1	1.1	0.9	0.0000	0.0000	0.0000	0.0000;
	1451	1	0	0	0	0	1	1.05586	-8.0342	110	1	1.1	0.9	0.0000	0.0000	0.0000	0.0000;
	1461	1	0	0	0	0	1	1.05807	-7.4937	110	1	1.1	0.9	0.0000	0.0000	0.0000	0.0000;
	1481	1	0	0	0	0	1	1.06008	-7.3758	110	1	1.1	0.9	0.0000	0.0000	0.0000	0.0000;
	1492	1	0	0	0	0	1	1.04538	-7.2545	220	1	1.1	0.9	0.0000	0.0000	0.0000	0.0000;
	1501	1	0	0	0	0	1	1.04808	-7.2333	110	1	1.1	0.9	0.0000	0.0000	0.0000	0.0000;
	1511	1	0	0	0	0	1	1.05	1.4581	110	1	1.1	0.9	0.0000	0.0000	0.0000	0.0000;
	1541	1	0	0	0	0	1	1.06516	-6.2661	110	1	1.1	0.9	0.0000	0.0000	0.0000	0.0000;
	1551	1	0	0	0	0	1	1.05	0.3805	110	1	1.1	0.9	0.0000	0.0000	0.0000	0.0000;
	1571	1	0	0	0	0	1	1.02075	-12.2396	110	1	1.1	0.9	0.0000	0.0000	0.0000	0.0000;
	1581	1	0	0	0	0	1	1.05746	-7.2787	110	1	1.1	0.9	0.0000	0.0000	0.0000	0.0000;
	1601	1	0	0	0	0	1	1.05681	-5.4238	110	1	1.1	0.9	0.0000	0.0000	0.0000	0.0000;
	1602	1	0	0	0	0	1	1.06224	-2.1946	220	1	1.1	0.9	0.0000	0.0000	0.0000	0.0000;
	1611	1	0	0	0	0	1	1.05175	-5.6143	110	1	1.1	0.9	0.0000	0.0000	0.0000	0.0000;
	1621	1	0	0	0	0	1	1.05242	-6.7635	110	1	1.1	0.9	0.0000	0.0000	0.0000	0.0000;
	1631	1	0	0	0	0	1	1.05444	-8.1072	110	1	1.1	0.9	0.0000	0.0000	0.0000	0.0000;
	1641	1	0	0	0	0	1	1.06764	-4.4316	110	1	1.1	0.9	0.0000	0.0000	0.0000	0.0000;
	1642	1	0	0	0	0	1	1.06627	-2.1893	220	1	1.1	0.9	0.0000	0.0000	0.0000	0.0000;
	1651	1	0	0	0	0	1	1.0624	-3.4828	110	1	1.1	0.9	0.0000	0.0000	0.0000	0.0000;
	1661	1	0	0	0	0	1	1.05	-9.1739	110	1	1.1	0.9	0.0000	0.0000	0.0000	0.0000;
	1681	1	0	0	0	0	1	1.05463	-5.9793	110	1	1.1	0.9	0.0000	0.0000	0.0000	0.0000;
	1691	1	0	0	0	0	1	1.05853	-7.6568	110	1	1.1	0.9	0.0000	0.0000	0.0000	0.0000;
	1701	1	0	0	0	0	1	1.0518	-10.3825	110	1	1.1	0.9	0.0000	0.0000	0.0000	0.0000;
	1711	1	0	0	0	0	1	1.0721	-8.6386	110	1	1.1	0.9	0.0000	0.0000	0.0000	0.0000;
	1721	1	0	0	0	0	1	1.06533	-8.6514	110	1	1.1	0.9	0.0000	0.0000	0.0000	0.0000;
	1731	1	0	0	0	0	1	1.0721	-8.6386	110	1	1.1	0.9	0.0000	0.0000	0.0000	0.0000;
	1741	1	0	0	0	0	1	1.05867	-7.6113	110	1	1.1	0.9	0.0000	0.0000	0.0000	0.0000;
	1742	1	0	0	0	0	1	1.06915	-5.3148	220	1	1.1	0.9	0.0000	0.0000	0.0000	0.0000;
	1761	1	0	0	0	0	1	1.05182	-10.3828	110	1	1.1	0.9	0.0000	0.0000	0.0000	0.0000;
	1781	1	0	0	0	0	1	1.0496	-1.7737	110	1	1.1	0.9	0.0000	0.0000	0.0000	0.0000;
	1791	1	0	0	0	0	1	1.05309	-8.5528	110	1	1.1	0.9	0.0000	0.0000	0.0000	0.0000;
	1801	1	0	0	0	0	1	1.05879	-7.6879	110	1	1.1	0.9	0.0000	0.0000	0.0000	0.0000;
	1821	1	0	0	0	0	1	1.05722	-6.2684	110	1	1.1	0.9	0.0000	0.0000	0.0000	0.0000;
	1831	1	0	0	0	0	1	1.05625	-5.663	110	1	1.1	0.9	0.0000	0.0000	0.0000	0.0000;
	1841	1	0	0	0	0	1	1.06705	-5.8738	110	1	1.1	0.9	0.0000	0.0000	0.0000	0.0000;
	1851	1	0	0	0	0	1	1.0559	-7.7583	110	1	1.1	0.9	0.0000	0.0000	0.0000	0.0000;
	1861	1	0	0	0	0	1	1.05091	-8.3142	110	1	1.1	0.9	0.0000	0.0000	0.0000	0.0000;
	1871	1	0	0	0	0	1	1.05803	-7.8586	110	1	1.1	0.9	0.0000	0.0000	0.0000	0.0000;
	1881	1	0	0	0	0	1	1.04113	-7.5234	110	1	1.1	0.9	0.0000	0.0000	0.0000	0.0000;
	1891	1	0	0	0	0	1	1.04124	-9.6527	110	1	1.1	0.9	0.0000	0.0000	0.0000	0.0000;
	1901	1	0	0	0	0	1	1.07035	-7.7345	110	1	1.1	0.9	0.0000	0.0000	0.0000	0.0000;
	1911	1	0	0	0	0	1	1.05587	-7.1494	110	1	1.1	0.9	0.0000	0.0000	0.0000	0.0000;
	1921	1	0	0	0	0	1	1.05934	-6.4112	110	1	1.1	0.9	0.0000	0.0000	0.0000	0.0000;
	1931	1	0	0	0	0	1	1.0542	-8.6904	110	1	1.1	0.9	0.0000	0.0000	0.0000	0.0000;
	1941	1	0	0	0	0	1	1.075	-6.2915	110	1	1.1	0.9	0.0000	0.0000	0.0000	0.0000;
	1951	1	0	0	0	0	1	1.0375	-10.0571	110	1	1.1	0.9	0.0000	0.0000	0.0000	0.0000;
	1961	1	0	0	0	0	1	1.05698	-6.5851	110	1	1.1	0.9	0.0000	0.0000	0.0000	0.0000;
	1971	1	0	0	0	0	1	1.05	1.0545	110	1	1.1	0.9	0.0000	0.0000	0.0000	0.0000;
	1981	1	0	0	0	0	1	1.04523	-11.851	110	1	1.1	0.9	0.0000	0.0000	0.0000	0.0000;
	1991	1	0	0	0	0	1	1.06852	-5.1458	110	1	1.1	0.9	0.0000	0.0000	0.0000	0.0000;
	2001	1	0	0	0	0	1	1.06373	-7.0216	110	1	1.1	0.9	0.0000	0.0000	0.0000	0.0000;
	2002	1	0	0	0	0	1	1.07249	-4.1361	220	1	1.1	0.9	0.0000	0.0000	0.0000	0.0000;
	2021	1	0	0	0	0	1	1.04552	-10.1581	110	1	1.1	0.9	0.0000	0.0000	0.0000	0.0000;
	2041	1	0	0	0	0	1	1.05854	-7.7799	110	1	1.1	0.9	0.0000	0.0000	0.0000	0.0000;
	2042	1	0	0	0	0	1	1.075	-4.7646	220	1	1.1	0.9	0.0000	0.0000	0.0000	0.0000;
	2051	1	0	0	0	0	1	1.05249	-7.0435	110	1	1.1	0.9	0.0000	0.0000	0.0000	0.0000;
	2052	1	0	0	0	0	1	1.075	-4.7646	220	1	1.1	0.9	0.0000	0.0000	0.0000	0.0000;
	2081	4	0	0	0	0	1	1	0	110	1	1.1	0.9	0.0000	0.0000	0.0000	0.0000;
	2090	1	0	0	0	0	1	1.07559	-3.675	110	1	1.1	0.9	0.0000	0.0000	0.0000	0.0000;
	2091	1	0	0	0	0	1	1.06298	-5.1678	110	1	1.1	0.9	0.0000	0.0000	0.0000	0.0000;
	2101	1	0	0	0	0	1	1.04744	-9.7688	110	1	1.1	0.9	0.0000	0.0000	0.0000	0.0000;
	2111	1	0	0	0	0	1	1.0791	-3.1204	110	1	1.1	0.9	0.0000	0.0000	0.0000	0.0000;
	2121	1	0	0	0	0	1	1.04957	-6.6398	110	1	1.1	0.9	0.0000	0.0000	0.0000	0.0000;
	2131	1	0	0	0	0	1	1.05	1.2545	110	1	1.1	0.9	0.0000	0.0000	0.0000	0.0000;
	2141	1	0	0	0	0	1	1.05416	-7.8796	110	1	1.1	0.9	0.0000	0.0000	0.0000	0.0000;
	2161	1	0	0	0	0	1	1.05574	-8.8745	110	1	1.1	0.9	0.0000	0.0000	0.0000	0.0000;
	2181	1	0	0	0	0	1	1.04141	-9.7136	110	1	1.1	0.9	0.0000	0.0000	0.0000	0.0000;
	2202	1	0	0	0	0	1	1.06873	-4.309	220	1	1.1	0.9	0.0000	0.0000	0.0000	0.0000;
	2204	1	0	0	0	0	1	1.03568	-2.4085	380	1	1.1	0.9	0.0000	0.0000	0.0000	0.0000;
	2221	1	0	0	0	0	1	1.05334	-6.1334	110	1	1.1	0.9	0.0000	0.0000	0.0000	0.0000;
	2231	1	0	0	0	0	1	1.06303	-4.2626	110	1	1.1	0.9	0.0000	0.0000	0.0000	0.0000;
	2241	1	0	0	0	0	1	1.0641	-6.5722	110	1	1.1	0.9	0.0000	0.0000	0.0000	0.0000;
	2251	1	0	0	0	0	1	1.07254	-8.6127	110	1	1.1	0.9	0.0000	0.0000	0.0000	0.0000;
	2261	1	0	0	0	0	1	1.05152	-7.9333	110	1	1.1	0.9	0.0000	0.0000	0.0000	0.0000;
	2281	1	0	0	0	0	1	1.04664	-8.0778	110	1	1.1	0.9	0.0000	0.0000	0.0000	0.0000;
	2301	1	0	0	0	0	1	1.05203	-8.1849	110	1	1.1	0.9	0.0000	0.0000	0.0000	0.0000;
	2321	1	0	0	0	0	1	1.04574	-11.2605	110	1	1.1	0.9	0.0000	0.0000	0.0000	0.0000;
	2361	1	0	0	0	0	1	1.05	-5.8435	110	1	1.1	0.9	0.0000	0.0000	0.0000	0.0000;
	2391	1	0	0	0	0	1	1.06389	-8.2845	110	1	1.1	0.9	0.0000	0.0000	0.0000	0.0000;
	2401	1	0	0	0	0	1	1.0584	-6.3539	110	1	1.1	0.9	0.0000	0.0000	0.0000	0.0000;
	2411	1	0	0	0	0	1	1.06152	-7.0853	110	1	1.1	0.9	0.0000	0.0000	0.0000	0.0000;
	2481	1	0	0	0	0	1	1.05388	-7.8342	110	1	1.1	0.9	0.0000	0.0000	0.0000	0.0000;
	2491	1	0	0	0	0	1	1.05411	-7.8233	110	1	1.1	0.9	0.0000	0.0000	0.0000	0.0000;
	2521	1	0	0	0	0	1	1.05207	-8.1643	110	1	1.1	0.9	0.0000	0.0000	0.0000	0.0000;
	2522	1	0	0	0	0	1	1.05609	-6.441	220	1	1.1	0.9	0.0000	0.0000	0.0000	0.0000;
	2541	1	0	0	0	0	1	1.07293	-6.7308	110	1	1.1	0.9	0.0000	0.0000	0.0000	0.0000;
	2551	1	0	0	0	0	1	1.06878	-7.9158	110	1	1.1	0.9	0.0000	0.0000	0.0000	0.0000;
	2561	1	0	0	0	0	1	1.05954	-7.1249	110	1	1.1	0.9	0.0000	0.0000	0.0000	0.0000;
	2562	1	0	0	0	0	1	1.075	-4.9535	220	1	1.1	0.9	0.0000	0.0000	0.0000	0.0000;
	2563	1	0	0	0	0	1	1.075	-4.9535	220	1	1.1	0.9	0.0000	0.0000	0.0000	0.0000;
	2571	1	0	0	0	0	1	1.0729	-8.4472	110	1	1.1	0.9	0.0000	0.0000	0.0000	0.0000;
	2581	1	0	0	0	0	1	1.05727	-7.9407	110	1	1.1	0.9	0.0000	0.0000	0.0000	0.0000;
	2671	1	0	0	0	0	1	1.05434	-7.9088	110	1	1.1	0.9	0.0000	0.0000	0.0000	0.0000;
	2681	1	0	0	0	0	1	1.05402	-8.451	110	1	1.1	0.9	0.0000	0.0000	0.0000	0.0000;
	2701	1	0	0	0	0	1	1.05648	-9.5137	110	1	1.1	0.9	0.0000	0.0000	0.0000	0.0000;
	2721	1	0	0	0	0	1	1.06069	-7.6154	110	1	1.1	0.9	0.0000	0.0000	0.0000	0.0000;
	2731	1	0	0	0	0	1	1.05005	1.0726	110	1	1.1	0.9	0.0000	0.0000	0.0000	0.0000;
	2741	1	0	0	0	0	1	1.06577	-6.7547	110	1	1.1	0.9	0.0000	0.0000	0.0000	0.0000;
	2742	1	0	0	0	0	1	1.075	-3.4931	220	1	1.1	0.9	0.0000	0.0000	0.0000	0.0000;
	2761	1	0	0	0	0	1	1.07189	-8.6602	110	1	1.1	0.9	0.0000	0.0000	0.0000	0.0000;
	2771	1	0	0	0	0	1	1.04945	0.3764	110	1	1.1	0.9	0.0000	0.0000	0.0000	0.0000;
	2780	1	0	0	0	0	1	1.06581	-4.7526	110	1	1.1	0.9	0.0000	0.0000	0.0000	0.0000;
	2781	1	0	0	0	0	1	1.06581	-4.7526	110	1	1.1	0.9	0.0000	0.0000	0.0000	0.0000;
	2801	1	0	0	0	0	1	1.04802	-10.4281	110	1	1.1	0.9	0.0000	0.0000	0.0000	0.0000;
	2821	1	0	0	0	0	1	1.04435	-11.9928	110	1	1.1	0.9	0.0000	0.0000	0.0000	0.0000;
	2841	1	0	0	0	0	1	1.04034	-9.663	110	1	1.1	0.9	0.0000	0.0000	0.0000	0.0000;
	2842	1	0	0	0	0	1	1.05116	-7.1926	220	1	1.1	0.9	0.0000	0.0000	0.0000	0.0000;
	2852	1	0	0	0	0	1	1.07821	-3.2031	220	1	1.1	0.9	0.0000	0.0000	0.0000	0.0000;
	2861	1	0	0	0	0	1	1.04602	-9.9891	110	1	1.1	0.9	0.0000	0.0000	0.0000	0.0000;
	2870	1	0	0	0	0	1	1.04941	-10.4171	110	1	1.1	0.9	0.0000	0.0000	0.0000	0.0000;
	2871	1	0	0	0	0	1	1.04941	-10.4171	110	1	1.1	0.9	0.0000	0.0000	0.0000	0.0000;
	2881	1	0	0	0	0	1	1.0357	-7.6861	110	1	1.1	0.9	0.0000	0.0000	0.0000	0.0000;
	2941	1	0	0	0	0	1	1.07323	-6.7343	110	1	1.1	0.9	0.0000	0.0000	0.0000	0.0000;
	2951	1	0	0	0	0	1	1.06897	-7.9012	110	1	1.1	0.9	0.0000	0.0000	0.0000	0.0000;
	2962	1	0	0	0	0	1	1.07505	-4.9118	220	1	1.1	0.9	0.0000	0.0000	0.0000	0.0000;
	2972	1	0	0	0	0	1	1.07597	-4.5954	220	1	1.1	0.9	0.0000	0.0000	0.0000	0.0000;
	2981	1	0	0	0	0	1	1.05376	-5.9505	110	1	1.1	0.9	0.0000	0.0000	0.0000	0.0000;
	3061	1	0	0	0	0	1	1.05276	-6.6505	110	1	1.1	0.9	0.0000	0.0000	0.0000	0.0000;
	3081	1	0	0	0	0	1	1.06931	-7.8634	110	1	1.1	0.9	0.0000	0.0000	0.0000	0.0000;
	3082	1	0	0	0	0	1	1.0743	-5.9749	220	1	1.1	0.9	0.0000	0.0000	0.0000	0.0000;
	3091	1	0	0	0	0	1	1.05088	-9.7887	110	1	1.1	0.9	0.0000	0.0000	0.0000	0.0000;
	3101	1	0	0	0	0	1	1.05456	-8.192	110	1	1.1	0.9	0.0000	0.0000	0.0000	0.0000;
	3122	1	0	0	0	0	1	1.075	-5.2302	220	1	1.1	0.9	0.0000	0.0000	0.0000	0.0000;
	3190	1	0	0	0	0	1	1.05964	-3.4134	110	1	1.1	0.9	0.0000	0.0000	0.0000	0.0000;
	3191	1	0	0	0	0	1	1.05236	0.5429	110	1	1.1	0.9	0.0000	0.0000	0.0000	0.0000;
	3192	1	0	0	0	0	1	1.06694	-0.8526	220	1	1.1	0.9	0.0000	0.0000	0.0000	0.0000;
	3200	1	0	0	0	0	1	1.07099	-3.9336	110	1	1.1	0.9	0.0000	0.0000	0.0000	0.0000;
	3201	1	0	0	0	0	1	1.06102	-6.3597	110	1	1.1	0.9	0.0000	0.0000	0.0000	0.0000;
	3202	1	0	0	0	0	1	1.07099	-3.9336	220	1	1.1	0.9	0.0000	0.0000	0.0000	0.0000;
	3203	1	0	0	0	0	1	1.07099	-3.9336	220	1	1.1	0.9	0.0000	0.0000	0.0000	0.0000;
	3209	1	0	0	0	0	1	1.06102	-6.3597	110	1	1.1	0.9	0.0000	0.0000	0.0000	0.0000;
	3211	1	0	0	0	0	1	1.06256	-4.3274	110	1	1.1	0.9	0.0000	0.0000	0.0000	0.0000;
	3221	1	0	0	0	0	1	1.05253	-7.0411	110	1	1.1	0.9	0.0000	0.0000	0.0000	0.0000;
	3241	1	0	0	0	0	1	1.06194	-8.8829	110	1	1.1	0.9	0.0000	0.0000	0.0000	0.0000;
	3251	1	0	0	0	0	1	1.06364	-3.7464	110	1	1.1	0.9	0.0000	0.0000	0.0000	0.0000;
	3261	1	0	0	0	0	1	1.05679	-9.5317	110	1	1.1	0.9	0.0000	0.0000	0.0000	0.0000;
	3281	1	0	0	0	0	1	1.05657	-6.1524	110	1	1.1	0.9	0.0000	0.0000	0.0000	0.0000;
	3282	1	0	0	0	0	1	1.05658	-4.5876	220	1	1.1	0.9	0.0000	0.0000	0.0000	0.0000;
	3301	1	0	0	0	0	1	1.0477	-5.7388	110	1	1.1	0.9	0.0000	0.0000	0.0000	0.0000;
	3321	1	0	0	0	0	1	1.03193	-10.1909	110	1	1.1	0.9	0.0000	0.0000	0.0000	0.0000;
	3330	1	0	0	0	0	1	1.05319	0.4503	110	1	1.1	0.9	0.0000	0.0000	0.0000	0.0000;
	3331	1	0	0	0	0	1	1.05319	0.4503	110	1	1.1	0.9	0.0000	0.0000	0.0000	0.0000;
	3332	1	0	0	0	0	1	1.06282	-0.7754	220	1	1.1	0.9	0.0000	0.0000	0.0000	0.0000;
	3341	1	0	0	0	0	1	1.07503	-7.5719	110	1	1.1	0.9	0.0000	0.0000	0.0000	0.0000;
	3342	1	0	0	0	0	1	1.06114	-5.0405	220	1	1.1	0.9	0.0000	0.0000	0.0000	0.0000;
	3361	1	0	0	0	0	1	1.04101	-11.8637	110	1	1.1	0.9	0.0000	0.0000	0.0000	0.0000;
	3381	1	0	0	0	0	1	1.04908	-8.3261	110	1	1.1	0.9	0.0000	0.0000	0.0000	0.0000;
	3391	1	0	0	0	0	1	1.05	1.5426	110	1	1.1	0.9	0.0000	0.0000	0.0000	0.0000;
	3401	1	0	0	0	0	1	1.06041	-7.3318	110	1	1.1	0.9	0.0000	0.0000	0.0000	0.0000;
	3421	1	0	0	0	0	1	1.07208	-8.6382	110	1	1.1	0.9	0.0000	0.0000	0.0000	0.0000;
	3431	1	0	0	0	0	1	1.04575	-10.0064	110	1	1.1	0.9	0.0000	0.0000	0.0000	0.0000;
	3462	1	0	0	0	0	1	1.06995	-1.4528	220	1	1.1	0.9	0.0000	0.0000	0.0000	0.0000;
	3472	1	0	0	0	0	1	1.06895	-1.7443	220	1	1.1	0.9	0.0000	0.0000	0.0000	0.0000;
	3501	1	0	0	0	0	1	1.05	-6.4092	110	1	1.1	0.9	0.0000	0.0000	0.0000	0.0000;
	3521	1	0	0	0	0	1	1.06258	-9.1469	110	1	1.1	0.9	0.0000	0.0000	0.0000	0.0000;
	3522	1	0	0	0	0	1	1.04536	-7.2544	220	1	1.1	0.9	0.0000	0.0000	0.0000	0.0000;
	3541	1	0	0	0	0	1	1.04953	-6.0915	110	1	1.1	0.9	0.0000	0.0000	0.0000	0.0000;
	3561	1	0	0	0	0	1	1.06095	-11.2267	110	1	1.1	0.9	0.0000	0.0000	0.0000	0.0000;
...
];

%%%% branch data
%%	fbus	tbus	r	x	b	rateA	rateB	rateC	ratio	angle	status	angmin	angmax	Pf	Qf	Pt	Qt	mu_Sf	mu_St	mu_angmin	mu_angmax
mpc.branch = [
	11	42404	0.0036	0.00391	0.00207	100	100	110	0	0	1	-360	360	0.0000	0.0000	0.0000	0.0000	0.0000	0.0000	0.0000	0.0000;
	12	25404	0.00534	0.00795	0.00407	9999	9999	10998.9	0	0	1	-360	360	0.0000	0.0000	0.0000	0.0000	0.0000	0.0000	0.0000	0.0000;
	12	25404	0.00594	0.00866	0.00435	9999	9999	10998.9	0	0	1	-360	360	0.0000	0.0000	0.0000	0.0000	0.0000	0.0000	0.0000	0.0000;
	12	46504	0.02132	0.02114	0.00329	9999	9999	10998.9	0	0	1	-360	360	0.0000	0.0000	0.0000	0.0000	0.0000	0.0000	0.0000	0.0000;
	12	46504	0.01937	0.01703	0.00256	9999	9999	10998.9	0	0	1	-360	360	0.0000	0.0000	0.0000	0.0000	0.0000	0.0000	0.0000	0.0000;
	1021	2121	0.0286	0.067	0.0059	105	105	115.5	0	0	1	-360	360	0.0000	0.0000	0.0000	0.0000	0.0000	0.0000	0.0000	0.0000;
	1021	2361	0.0513	0.1172	0.0106	105	105	115.5	0	0	1	-360	360	0.0000	0.0000	0.0000	0.0000	0.0000	0.0000	0.0000	0.0000;
	1021	3541	0.0071	0.037	0.0116	99	99	108.9	0	0	1	-360	360	0.0000	0.0000	0.0000	0.0000	0.0000	0.0000	0.0000	0.0000;
	1021	10210	0	0.0001	0	999	999	1098.9	0	0	1	-360	360	0.0000	0.0000	0.0000	0.0000	0.0000	0.0000	0.0000	0.0000;
	1021	10261	0	0.0001	0	105	105	115.5	0	0	1	-360	360	0.0000	0.0000	0.0000	0.0000	0.0000	0.0000	0.0000	0.0000;
	1041	5481	0.0049	0.0107	0.001	105	105	115.5	0	0	1	-360	360	0.0000	0.0000	0.0000	0.0000	0.0000	0.0000	0.0000	0.0000;
	1042	1052	0	0.0001	0	9999	9999	10998.9	0	0	1	-360	360	0.0000	0.0000	0.0000	0.0000	0.0000	0.0000	0.0000	0.0000;
	1042	1062	0	0.0001	0	593	593	652.3	0	0	1	-360	360	0.0000	0.0000	0.0000	0.0000	0.0000	0.0000	0.0000	0.0000;
	1042	1072	0.0001	0.0006	0.0384	593	593	652.3	0	0	1	-360	360	0.0000	0.0000	0.0000	0.0000	0.0000	0.0000	0.0000	0.0000;
	1042	3202	0.003	0.0222	0.0335	434	434	477.4	0	0	1	-360	360	0.0000	0.0000	0.0000	0.0000	0.0000	0.0000	0.0000	0.0000;
	1042	4722	0.0012	0.0078	0.2591	434	434	477.4	0	0	1	-360	360	0.0000	0.0000	0.0000	0.0000	0.0000	0.0000	0.0000	0.0000;
	1042	35771	0.0001	0.0004	0.0265	593	593	652.3	0	0	1	-360	360	0.0000	0.0000	0.0000	0.0000	0.0000	0.0000	0.0000	0.0000;
	1052	1062	0	0.0001	0	999	999	1098.9	0	0	1	-360	360	0.0000	0.0000	0.0000	0.0000	0.0000	0.0000	0.0000	0.0000;
	1052	2852	0.0002	0.0015	0.1035	593	593	652.3	0	0	1	-360	360	0.0000	0.0000	0.0000	0.0000	0.0000	0.0000	0.0000	0.0000;
	1052	3202	0.003	0.0222	0.0335	434	434	477.4	0	0	1	-360	360	0.0000	0.0000	0.0000	0.0000	0.0000	0.0000	0.0000	0.0000;
	1061	10619	0.0004	0.0008	0.0001	105	105	115.5	0	0	1	-360	360	0.0000	0.0000	0.0000	0.0000	0.0000	0.0000	0.0000	0.0000;
	1062	1072	0	0.0001	0	999	999	1098.9	0	0	1	-360	360	0.0000	0.0000	0.0000	0.0000	0.0000	0.0000	0.0000	0.0000;
	1071	2361	0.0594	0.1314	0.0123	105	105	115.5	0	0	1	-360	360	0.0000	0.0000	0.0000	0.0000	0.0000	0.0000	0.0000	0.0000;
	1071	3211	0.0094	0.0208	0.002	105	105	115.5	0	0	1	-360	360	0.0000	0.0000	0.0000	0.0000	0.0000	0.0000	0.0000	0.0000;
	1071	4941	0.0718	0.1589	0.0148	105	105	115.5	0	0	1	-360	360	0.0000	0.0000	0.0000	0.0000	0.0000	0.0000	0.0000	0.0000;
	1081	32810	0.0039	0.0123	0.0035	68	112	123.2	0	0	1	-360	360	0.0000	0.0000	0.0000	0.0000	0.0000	0.0000	0.0000	0.0000;
	1091	2861	0.0018	0.0038	0.0251	140	140	154	0	0	1	-360	360	0.0000	0.0000	0.0000	0.0000	0.0000	0.0000	0.0000	0.0000;
	1091	2861	0.0018	0.0038	0.0251	140	140	154	0	0	1	-360	360	0.0000	0.0000	0.0000	0.0000	0.0000	0.0000	0.0000	0.0000;
	1101	2161	0.0031	0.0069	0.0006	45	105	115.5	0	0	1	-360	360	0.0000	0.0000	0.0000	0.0000	0.0000	0.0000	0.0000	0.0000;
	1121	1301	0.0102	0.0787	0.0071	136	136	149.6	0	0	1	-360	360	0.0000	0.0000	0.0000	0.0000	0.0000	0.0000	0.0000	0.0000;
	1121	1541	0.0207	0.0952	0.0102	137	178	195.8	0	0	1	-360	360	0.0000	0.0000	0.0000	0.0000	0.0000	0.0000	0.0000	0.0000;
	1121	4901	0.0035	0.0077	0.0008	34	34	37.4	0	0	1	-360	360	0.0000	0.0000	0.0000	0.0000	0.0000	0.0000	0.0000	0.0000;
	1122	1742	0.0062	0.0462	0.0697	434	434	477.4	0	0	1	-360	360	0.0000	0.0000	0.0000	0.0000	0.0000	0.0000	0.0000	0.0000;
	1122	3642	0.0046	0.0338	0.051	434	434	477.4	0	0	1	-360	360	0.0000	0.0000	0.0000	0.0000	0.0000	0.0000	0.0000	0.0000;
	1131	1151	0	0.0001	0	178	178	195.8	0	0	1	-360	360	0.0000	0.0000	0.0000	0.0000	0.0000	0.0000	0.0000	0.0000;
	1131	2131	0.005	0.0105	0.0703	140	140	154	0	0	1	-360	360	0.0000	0.0000	0.0000	0.0000	0.0000	0.0000	0.0000	0.0000;
	1131	31911	0.0057	0.0293	0.0032	178	178	195.8	0	0	1	-360	360	0.0000	0.0000	0.0000	0.0000	0.0000	0.0000	0.0000	0.0000;
	1141	1911	0.0016	0.0034	0.0226	140	140	154	0	0	1	-360	360	0.0000	0.0000	0.0000	0.0000	0.0000	0.0000	0.0000	0.0000;
	1141	3501	0.054	0.123	0.0116	105	105	115.5	0	0	1	-360	360	0.0000	0.0000	0.0000	0.0000	0.0000	0.0000	0.0000	0.0000;
	1141	4941	0.0135	0.0696	0.0113	137	178	195.8	0	0	1	-360	360	0.0000	0.0000	0.0000	0.0000	0.0000	0.0000	0.0000	0.0000;
	1141	11461	0	0.0001	0	105	105	115.5	0	0	1	-360	360	0.0000	0.0000	0.0000	0.0000	0.0000	0.0000	0.0000	0.0000;
	1161	1781	0.001	0.002	0.0011	96	96	105.6	0	0	1	-360	360	0.0000	0.0000	0.0000	0.0000	0.0000	0.0000	0.0000	0.0000;
	1161	3901	0.0173	0.0894	0.0097	178	178	195.8	0	0	1	-360	360	0.0000	0.0000	0.0000	0.0000	0.0000	0.0000	0.0000	0.0000;
	1161	5051	0.0006	0.0012	0.0061	120	120	132	0	0	1	-360	360	0.0000	0.0000	0.0000	0.0000	0.0000	0.0000	0.0000	0.0000;
	1161	5071	0.0006	0.0012	0.0061	120	120	132	0	0	1	-360	360	0.0000	0.0000	0.0000	0.0000	0.0000	0.0000	0.0000	0.0000;
	1161	17810	0.001	0.0021	0.0012	96	96	105.6	0	0	1	-360	360	0.0000	0.0000	0.0000	0.0000	0.0000	0.0000	0.0000	0.0000;
	1161	51410	0.0214	0.1105	0.012	178	178	195.8	0	0	1	-360	360	0.0000	0.0000	0.0000	0.0000	0.0000	0.0000	0.0000	0.0000;
	1181	1861	0.0644	0.1424	0.0133	105	105	115.5	0	0	1	-360	360	0.0000	0.0000	0.0000	0.0000	0.0000	0.0000	0.0000	0.0000;
	1181	2821	0.0193	0.0994	0.0108	178	178	195.8	0	0	1	-360	360	0.0000	0.0000	0.0000	0.0000	0.0000	0.0000	0.0000	0.0000;
	1181	4221	0.0381	0.1969	0.0214	120	120	132	0	0	1	-360	360	0.0000	0.0000	0.0000	0.0000	0.0000	0.0000	0.0000	0.0000;
	1181	4961	0.0292	0.0645	0.006	80	80	88	0	0	1	-360	360	0.0000	0.0000	0.0000	0.0000	0.0000	0.0000	0.0000	0.0000;
	1181	4961	0.0148	0.0763	0.0097	178	178	195.8	0	0	1	-360	360	0.0000	0.0000	0.0000	0.0000	0.0000	0.0000	0.0000	0.0000;
	1201	2561	0.0047	0.0101	0.0548	120	120	132	0	0	1	-360	360	0.0000	0.0000	0.0000	0.0000	0.0000	0.0000	0.0000	0.0000;
	1201	3781	0.0026	0.0055	0.0298	120	120	132	0	0	1	-360	360	0.0000	0.0000	0.0000	0.0000	0.0000	0.0000	0.0000	0.0000;
	1211	2771	0.0044	0.0228	0.0025	178	178	195.8	0	0	1	-360	360	0.0000	0.0000	0.0000	0.0000	0.0000	0.0000	0.0000	0.0000;
	1211	12111	0	0.0001	0	178	178	195.8	0	0	1	-360	360	0.0000	0.0000	0.0000	0.0000	0.0000	0.0000	0.0000	0.0000;
	1212	1602	0.0025	0.0158	0.025	761	761	837.1	0	0	1	-360	360	0.0000	0.0000	0.0000	0.0000	0.0000	0.0000	0.0000	0.0000;
	1212	3332	0.002	0.0124	0.0197	761	761	837.1	0	0	1	-360	360	0.0000	0.0000	0.0000	0.0000	0.0000	0.0000	0.0000	0.0000;
	1221	1901	0.0389	0.086	0.008	105	105	115.5	0	0	1	-360	360	0.0000	0.0000	0.0000	0.0000	0.0000	0.0000	0.0000	0.0000;
	1221	4481	0.0414	0.0915	0.0086	105	105	115.5	0	0	1	-360	360	0.0000	0.0000	0.0000	0.0000	0.0000	0.0000	0.0000	0.0000;
	1231	1841	0.0111	0.03	0.1366	68	116	127.6	0	0	1	-360	360	0.0000	0.0000	0.0000	0.0000	0.0000	0.0000	0.0000	0.0000;
	1251	2361	0.0373	0.0826	0.0077	105	105	115.5	0	0	1	-360	360	0.0000	0.0000	0.0000	0.0000	0.0000	0.0000	0.0000	0.0000;
	1251	52219	0.0305	0.0674	0.0063	105	105	115.5	0	0	1	-360	360	0.0000	0.0000	0.0000	0.0000	0.0000	0.0000	0.0000	0.0000;
	1271	2041	0.0106	0.0546	0.006	178	178	195.8	0	0	1	-360	360	0.0000	0.0000	0.0000	0.0000	0.0000	0.0000	0.0000	0.0000;
	1271	2181	0.0126	0.065	0.0071	178	178	195.8	0	0	1	-360	360	0.0000	0.0000	0.0000	0.0000	0.0000	0.0000	0.0000	0.0000;
	1281	2221	0.0426	0.0943	0.0098	68	105	115.5	0	0	1	-360	360	0.0000	0.0000	0.0000	0.0000	0.0000	0.0000	0.0000	0.0000;
	1301	17411	0.0148	0.1159	0.0104	136	136	149.6	0	0	1	-360	360	0.0000	0.0000	0.0000	0.0000	0.0000	0.0000	0.0000	0.0000;
	1311	3331	0.0052	0.0267	0.0029	178	178	195.8	0	0	1	-360	360	0.0000	0.0000	0.0000	0.0000	0.0000	0.0000	0.0000	0.0000;
	1321	13219	0.0006	0.0017	0.0002	136	136	149.6	0	0	1	-360	360	0.0000	0.0000	0.0000	0.0000	0.0000	0.0000	0.0000	0.0000;
	1341	1701	0.0533	0.1178	0.011	105	105	115.5	0	0	1	-360	360	0.0000	0.0000	0.0000	0.0000	0.0000	0.0000	0.0000	0.0000;
	1341	5191	0.023	0.0734	0.0075	136	136	149.6	0	0	1	-360	360	0.0000	0.0000	0.0000	0.0000	0.0000	0.0000	0.0000	0.0000;
	1351	4081	0.0121	0.0367	0.031	120	120	132	0	0	1	-360	360	0.0000	0.0000	0.0000	0.0000	0.0000	0.0000	0.0000	0.0000;
	1351	4201	0.0073	0.0214	0.0295	120	120	132	0	0	1	-360	360	0.0000	0.0000	0.0000	0.0000	0.0000	0.0000	0.0000	0.0000;
	1361	2001	0.0312	0.0751	0.0073	187	187	205.7	0	0	1	-360	360	0.0000	0.0000	0.0000	0.0000	0.0000	0.0000	0.0000	0.0000;
	1361	2161	0.0071	0.0368	0.004	178	178	195.8	0	0	1	-360	360	0.0000	0.0000	0.0000	0.0000	0.0000	0.0000	0.0000	0.0000;
	1381	1391	0	0.0001	0	136	136	149.6	0	0	1	-360	360	0.0000	0.0000	0.0000	0.0000	0.0000	0.0000	0.0000	0.0000;
	1381	4721	0.0027	0.0059	0.0006	63	63	69.3	0	0	1	-360	360	0.0000	0.0000	0.0000	0.0000	0.0000	0.0000	0.0000	0.0000;
	1391	4731	0.0021	0.0061	0.0007	105	105	115.5	0	0	1	-360	360	0.0000	0.0000	0.0000	0.0000	0.0000	0.0000	0.0000	0.0000;
	1401	1661	0.0235	0.1215	0.0132	178	178	195.8	0	0	1	-360	360	0.0000	0.0000	0.0000	0.0000	0.0000	0.0000	0.0000	0.0000;
	1401	4041	0.042	0.0929	0.0087	99	99	108.9	0	0	1	-360	360	0.0000	0.0000	0.0000	0.0000	0.0000	0.0000	0.0000	0.0000;
	1401	14061	0	0.001	0	105	105	115.5	0	0	1	-360	360	0.0000	0.0000	0.0000	0.0000	0.0000	0.0000	0.0000	0.0000;
	1421	4511	0.002	0.0041	0.092	119	119	130.9	0	0	1	-360	360	0.0000	0.0000	0.0000	0.0000	0.0000	0.0000	0.0000	0.0000;
	1421	4651	0.003	0.006	0.1362	119	119	130.9	0	0	1	-360	360	0.0000	0.0000	0.0000	0.0000	0.0000	0.0000	0.0000	0.0000;
	1441	1501	0.004	0.009	0.0009	68	105	115.5	0	0	1	-360	360	0.0000	0.0000	0.0000	0.0000	0.0000	0.0000	0.0000	0.0000;
	1441	2221	0.0402	0.089	0.0083	105	105	115.5	0	0	1	-360	360	0.0000	0.0000	0.0000	0.0000	0.0000	0.0000	0.0000	0.0000;
	1441	4731	0.0413	0.0914	0.0115	105	105	115.5	0	0	1	-360	360	0.0000	0.0000	0.0000	0.0000	0.0000	0.0000	0.0000	0.0000;
	1441	14461	0	0.0001	0	105	105	115.5	0	0	1	-360	360	0.0000	0.0000	0.0000	0.0000	0.0000	0.0000	0.0000	0.0000;
	1441	15010	0.0039	0.0086	0.0008	68	105	115.5	0	0	1	-360	360	0.0000	0.0000	0.0000	0.0000	0.0000	0.0000	0.0000	0.0000;
	1451	2581	0.0049	0.0156	0.0084	136	136	149.6	0	0	1	-360	360	0.0000	0.0000	0.0000	0.0000	0.0000	0.0000	0.0000	0.0000;
	1451	3761	0.0034	0.0109	0.0039	120	120	132	0	0	1	-360	360	0.0000	0.0000	0.0000	0.0000	0.0000	0.0000	0.0000	0.0000;
	1461	1721	0.0664	0.1525	0.0144	105	105	115.5	0	0	1	-360	360	0.0000	0.0000	0.0000	0.0000	0.0000	0.0000	0.0000	0.0000;
	1461	3201	0.0204	0.0656	0.0067	136	136	149.6	0	0	1	-360	360	0.0000	0.0000	0.0000	0.0000	0.0000	0.0000	0.0000	0.0000;
	1481	2001	0.0073	0.0376	0.0041	178	178	195.8	0	0	1	-360	360	0.0000	0.0000	0.0000	0.0000	0.0000	0.0000	0.0000	0.0000;
	1481	3401	0.0017	0.0088	0.001	178	178	195.8	0	0	1	-360	360	0.0000	0.0000	0.0000	0.0000	0.0000	0.0000	0.0000	0.0000;
	1492	3522	0.0001	0.0006	0.0411	593	593	652.3	0	0	1	-360	360	0.0000	0.0000	0.0000	0.0000	0.0000	0.0000	0.0000	0.0000;
	1511	52610	0.0083	0.0426	0.0047	178	178	195.8	0	0	1	-360	360	0.0000	0.0000	0.0000	0.0000	0.0000	0.0000	0.0000	0.0000;
	1541	1841	0.0179	0.0811	0.0087	137	178	195.8	0	0	1	-360	360	0.0000	0.0000	0.0000	0.0000	0.0000	0.0000	0.0000	0.0000;
	1551	16011	0.008	0.0395	0.0394	178	178	195.8	0	0	1	-360	360	0.0000	0.0000	0.0000	0.0000	0.0000	0.0000	0.0000	0.0000;
	1571	5191	0.0544	0.1204	0.0112	105	105	115.5	0	0	1	-360	360	0.0000	0.0000	0.0000	0.0000	0.0000	0.0000	0.0000	0.0000;
	1581	4491	0.0024	0.0072	0.0053	80	80	88	0	0	1	-360	360	0.0000	0.0000	0.0000	0.0000	0.0000	0.0000	0.0000	0.0000;
	1581	5521	0.0025	0.0053	0.0286	120	120	132	0	0	1	-360	360	0.0000	0.0000	0.0000	0.0000	0.0000	0.0000	0.0000	0.0000;
	1601	1611	0.0188	0.0968	0.0105	178	178	195.8	0	0	1	-360	360	0.0000	0.0000	0.0000	0.0000	0.0000	0.0000	0.0000	0.0000;
	1601	2221	0.022	0.1137	0.0124	178	178	195.8	0	0	1	-360	360	0.0000	0.0000	0.0000	0.0000	0.0000	0.0000	0.0000	0.0000;
	1601	3881	0.0036	0.0184	0.002	178	178	195.8	0	0	1	-360	360	0.0000	0.0000	0.0000	0.0000	0.0000	0.0000	0.0000	0.0000;
	1601	16011	0	0.0001	0	178	178	195.8	0	0	1	-360	360	0.0000	0.0000	0.0000	0.0000	0.0000	0.0000	0.0000	0.0000;
	1602	3202	0.0062	0.0385	0.0612	548	761	837.1	0	0	1	-360	360	0.0000	0.0000	0.0000	0.0000	0.0000	0.0000	0.0000	0.0000;
	1611	3301	0.0128	0.066	0.0072	178	178	195.8	0	0	1	-360	360	0.0000	0.0000	0.0000	0.0000	0.0000	0.0000	0.0000	0.0000;
	1611	16110	0	0.001	0	999	999	1098.9	0	0	1	-360	360	0.0000	0.0000	0.0000	0.0000	0.0000	0.0000	0.0000	0.0000;
	1621	3061	0.0018	0.0089	0.001	178	178	195.8	0	0	1	-360	360	0.0000	0.0000	0.0000	0.0000	0.0000	0.0000	0.0000	0.0000;
	1621	3221	0.0094	0.0468	0.0054	178	178	195.8	0	0	1	-360	360	0.0000	0.0000	0.0000	0.0000	0.0000	0.0000	0.0000	0.0000;
	1631	2671	0.0046	0.0238	0.0026	91	178	195.8	0	0	1	-360	360	0.0000	0.0000	0.0000	0.0000	0.0000	0.0000	0.0000	0.0000;
	1631	5041	0.0197	0.0435	0.0041	105	105	115.5	0	0	1	-360	360	0.0000	0.0000	0.0000	0.0000	0.0000	0.0000	0.0000	0.0000;
	1631	10619	0.0143	0.0457	0.0047	136	136	149.6	0	0	1	-360	360	0.0000	0.0000	0.0000	0.0000	0.0000	0.0000	0.0000	0.0000;
	1641	1821	0.0144	0.0741	0.0081	161	161	177.1	0	0	1	-360	360	0.0000	0.0000	0.0000	0.0000	0.0000	0.0000	0.0000	0.0000;
	1641	2281	0.0809	0.1788	0.0167	105	105	115.5	0	0	1	-360	360	0.0000	0.0000	0.0000	0.0000	0.0000	0.0000	0.0000	0.0000;
	1641	2361	0.0336	0.1737	0.0189	120	120	132	0	0	1	-360	360	0.0000	0.0000	0.0000	0.0000	0.0000	0.0000	0.0000	0.0000;
	1641	2781	0.0214	0.0474	0.0044	105	105	115.5	0	0	1	-360	360	0.0000	0.0000	0.0000	0.0000	0.0000	0.0000	0.0000	0.0000;
	1641	2781	0.0176	0.0388	0.0036	105	105	115.5	0	0	1	-360	360	0.0000	0.0000	0.0000	0.0000	0.0000	0.0000	0.0000	0.0000;
	1641	2781	0.0176	0.0388	0.0036	105	105	115.5	0	0	1	-360	360	0.0000	0.0000	0.0000	0.0000	0.0000	0.0000	0.0000	0.0000;
	1641	4951	0.0331	0.0727	0.0672	105	105	115.5	0	0	1	-360	360	0.0000	0.0000	0.0000	0.0000	0.0000	0.0000	0.0000	0.0000;
	1641	16411	0	0.0001	0	105	105	115.5	0	0	1	-360	360	0.0000	0.0000	0.0000	0.0000	0.0000	0.0000	0.0000	0.0000;
	1641	16461	0	0.0001	0	105	105	115.5	0	0	1	-360	360	0.0000	0.0000	0.0000	0.0000	0.0000	0.0000	0.0000	0.0000;
	1641	16462	0	0.0001	0	999	999	1098.9	0	0	1	-360	360	0.0000	0.0000	0.0000	0.0000	0.0000	0.0000	0.0000	0.0000;
	1641	50019	0.0698	0.1544	0.0144	105	105	115.5	0	0	1	-360	360	0.0000	0.0000	0.0000	0.0000	0.0000	0.0000	0.0000	0.0000;
	1642	2522	0.0103	0.0763	0.1152	405	405	445.5	0	0	1	-360	360	0.0000	0.0000	0.0000	0.0000	0.0000	0.0000	0.0000	0.0000;
	1642	4522	0.0103	0.0767	0.1158	434	434	477.4	0	0	1	-360	360	0.0000	0.0000	0.0000	0.0000	0.0000	0.0000	0.0000	0.0000;
	1642	5172	0.0046	0.0289	0.0459	730	761	837.1	0	0	1	-360	360	0.0000	0.0000	0.0000	0.0000	0.0000	0.0000	0.0000	0.0000;
	1651	5261	0.014	0.031	0.0029	105	105	115.5	0	0	1	-360	360	0.0000	0.0000	0.0000	0.0000	0.0000	0.0000	0.0000	0.0000;
	1651	5281	0.0199	0.0445	0.0251	105	105	115.5	0	0	1	-360	360	0.0000	0.0000	0.0000	0.0000	0.0000	0.0000	0.0000	0.0000;
	1661	1821	0.0893	0.1978	0.0195	105	105	115.5	0	0	1	-360	360	0.0000	0.0000	0.0000	0.0000	0.0000	0.0000	0.0000	0.0000;
	1661	1951	0.0375	0.0825	0.0518	99	99	108.9	0	0	1	-360	360	0.0000	0.0000	0.0000	0.0000	0.0000	0.0000	0.0000	0.0000;
	1661	2281	0.0432	0.0955	0.0089	93	105	115.5	0	0	1	-360	360	0.0000	0.0000	0.0000	0.0000	0.0000	0.0000	0.0000	0.0000;
	1661	16661	0	0.0001	0	105	105	115.5	0	0	1	-360	360	0.0000	0.0000	0.0000	0.0000	0.0000	0.0000	0.0000	0.0000;
	1661	16662	0	0.01	0	9999	9999	10998.9	0	0	1	-360	360	0.0000	0.0000	0.0000	0.0000	0.0000	0.0000	0.0000	0.0000;
	1681	3881	0.0016	0.0079	0.0009	137	178	195.8	0	0	1	-360	360	0.0000	0.0000	0.0000	0.0000	0.0000	0.0000	0.0000	0.0000;
	1681	32210	0.0202	0.1043	0.0113	178	178	195.8	0	0	1	-360	360	0.0000	0.0000	0.0000	0.0000	0.0000	0.0000	0.0000	0.0000;
	1691	5131	0.0029	0.0056	0.0725	100	100	110	0	0	1	-360	360	0.0000	0.0000	0.0000	0.0000	0.0000	0.0000	0.0000	0.0000;
	1691	51319	0.0018	0.0037	0.0247	100	100	110	0	0	1	-360	360	0.0000	0.0000	0.0000	0.0000	0.0000	0.0000	0.0000	0.0000;
	1701	1761	0.0058	0.0184	0.0019	68	136	149.6	0	0	1	-360	360	0.0000	0.0000	0.0000	0.0000	0.0000	0.0000	0.0000	0.0000;
	1701	1981	0.0385	0.1992	0.0216	178	178	195.8	0	0	1	-360	360	0.0000	0.0000	0.0000	0.0000	0.0000	0.0000	0.0000	0.0000;
	1701	5041	0.0649	0.1787	0.021	187	187	205.7	0	0	1	-360	360	0.0000	0.0000	0.0000	0.0000	0.0000	0.0000	0.0000	0.0000;
	1701	17010	0	0.0001	0	999	999	1098.9	0	0	1	-360	360	0.0000	0.0000	0.0000	0.0000	0.0000	0.0000	0.0000	0.0000;
	1701	17061	0	0.001	0	105	105	115.5	0	0	1	-360	360	0.0000	0.0000	0.0000	0.0000	0.0000	0.0000	0.0000	0.0000;
	1701	28712	0.0285	0.073	0.0067	187	187	205.7	0	0	1	-360	360	0.0000	0.0000	0.0000	0.0000	0.0000	0.0000	0.0000	0.0000;
	1711	3421	0.001	0.0021	0.0136	140	140	154	0	0	1	-360	360	0.0000	0.0000	0.0000	0.0000	0.0000	0.0000	0.0000	0.0000;
	1721	2161	0.0099	0.0511	0.0056	178	178	195.8	0	0	1	-360	360	0.0000	0.0000	0.0000	0.0000	0.0000	0.0000	0.0000	0.0000;
	1721	2391	0.0128	0.0659	0.0327	178	178	195.8	0	0	1	-360	360	0.0000	0.0000	0.0000	0.0000	0.0000	0.0000	0.0000	0.0000;
	1721	4911	0.00151	0.00547	0.03492	118	118	129.8	0	0	1	-360	360	0.0000	0.0000	0.0000	0.0000	0.0000	0.0000	0.0000	0.0000;
	1721	5381	0.0114	0.0589	0.0064	178	178	195.8	0	0	1	-360	360	0.0000	0.0000	0.0000	0.0000	0.0000	0.0000	0.0000	0.0000;
	1721	17261	0	0.0001	0	105	105	115.5	0	0	1	-360	360	0.0000	0.0000	0.0000	0.0000	0.0000	0.0000	0.0000	0.0000;
	1731	3421	0.001	0.0021	0.0136	140	140	154	0	0	1	-360	360	0.0000	0.0000	0.0000	0.0000	0.0000	0.0000	0.0000	0.0000;
	1741	1851	0.0038	0.0081	0.0295	105	105	115.5	0	0	1	-360	360	0.0000	0.0000	0.0000	0.0000	0.0000	0.0000	0.0000	0.0000;
	1741	4511	0.0013	0.0025	0.0566	119	119	130.9	0	0	1	-360	360	0.0000	0.0000	0.0000	0.0000	0.0000	0.0000	0.0000	0.0000;
	1741	17411	0	0.0001	0	178	178	195.8	0	0	1	-360	360	0.0000	0.0000	0.0000	0.0000	0.0000	0.0000	0.0000	0.0000;
	1741	51319	0.0002	0.0004	0.0001	136	136	149.6	0	0	1	-360	360	0.0000	0.0000	0.0000	0.0000	0.0000	0.0000	0.0000	0.0000;
	1742	2202	0.0049	0.0361	0.0544	434	434	477.4	0	0	1	-360	360	0.0000	0.0000	0.0000	0.0000	0.0000	0.0000	0.0000	0.0000;
	1742	3122	0.0004	0.0045	0.3148	593	593	652.3	0	0	1	-360	360	0.0000	0.0000	0.0000	0.0000	0.0000	0.0000	0.0000	0.0000;
	1742	17431	0	0.0001	0	434	434	477.4	0	0	1	-360	360	0.0000	0.0000	0.0000	0.0000	0.0000	0.0000	0.0000	0.0000;
	1742	17462	0	0.0001	0	434	434	477.4	0	0	1	-360	360	0.0000	0.0000	0.0000	0.0000	0.0000	0.0000	0.0000	0.0000;
	1791	4201	0.0097	0.031	0.0032	136	136	149.6	0	0	1	-360	360	0.0000	0.0000	0.0000	0.0000	0.0000	0.0000	0.0000	0.0000;
	1791	4481	0.03	0.0665	0.0062	105	105	115.5	0	0	1	-360	360	0.0000	0.0000	0.0000	0.0000	0.0000	0.0000	0.0000	0.0000;
	1801	4111	0.0136	0.045	0.0272	130	130	143	0	0	1	-360	360	0.0000	0.0000	0.0000	0.0000	0.0000	0.0000	0.0000	0.0000;
	1801	17411	0.0134	0.0417	0.0604	130	130	143	0	0	1	-360	360	0.0000	0.0000	0.0000	0.0000	0.0000	0.0000	0.0000	0.0000;
	1821	3501	0.0951	0.2216	0.021	99	99	108.9	0	0	1	-360	360	0.0000	0.0000	0.0000	0.0000	0.0000	0.0000	0.0000	0.0000;
	1831	2091	0.0271	0.0868	0.0089	136	136	149.6	0	0	1	-360	360	0.0000	0.0000	0.0000	0.0000	0.0000	0.0000	0.0000	0.0000;
	1841	3641	0.0051	0.026	0.0029	178	178	195.8	0	0	1	-360	360	0.0000	0.0000	0.0000	0.0000	0.0000	0.0000	0.0000	0.0000;
	1841	5501	0.0222	0.0711	0.0073	136	136	149.6	0	0	1	-360	360	0.0000	0.0000	0.0000	0.0000	0.0000	0.0000	0.0000	0.0000;
	1851	24819	0.0035	0.0076	0.0008	105	105	115.5	0	0	1	-360	360	0.0000	0.0000	0.0000	0.0000	0.0000	0.0000	0.0000	0.0000;
	1861	2521	0.0053	0.0117	0.0011	99	99	108.9	0	0	1	-360	360	0.0000	0.0000	0.0000	0.0000	0.0000	0.0000	0.0000	0.0000;
	1861	2521	0.0052	0.0114	0.0011	99	99	108.9	0	0	1	-360	360	0.0000	0.0000	0.0000	0.0000	0.0000	0.0000	0.0000	0.0000;
	1861	10619	0.0216	0.0691	0.0071	136	136	149.6	0	0	1	-360	360	0.0000	0.0000	0.0000	0.0000	0.0000	0.0000	0.0000	0.0000;
	1871	2581	0.0034	0.0127	0.0382	99	99	108.9	0	0	1	-360	360	0.0000	0.0000	0.0000	0.0000	0.0000	0.0000	0.0000	0.0000;
	1871	20411	0.0009	0.0043	0.0196	130	130	143	0	0	1	-360	360	0.0000	0.0000	0.0000	0.0000	0.0000	0.0000	0.0000	0.0000;
	1881	2881	0.0467	0.1032	0.0096	105	105	115.5	0	0	1	-360	360	0.0000	0.0000	0.0000	0.0000	0.0000	0.0000	0.0000	0.0000;
	1881	3281	0.0385	0.1231	0.0126	136	136	149.6	0	0	1	-360	360	0.0000	0.0000	0.0000	0.0000	0.0000	0.0000	0.0000	0.0000;
	1881	4021	0.0142	0.0731	0.008	178	178	195.8	0	0	1	-360	360	0.0000	0.0000	0.0000	0.0000	0.0000	0.0000	0.0000	0.0000;
	1891	2041	0.0232	0.1199	0.013	178	178	195.8	0	0	1	-360	360	0.0000	0.0000	0.0000	0.0000	0.0000	0.0000	0.0000	0.0000;
	1891	4501	0.0006	0.003	0.0004	178	178	195.8	0	0	1	-360	360	0.0000	0.0000	0.0000	0.0000	0.0000	0.0000	0.0000	0.0000;
	1901	3341	0.0084	0.0186	0.0018	105	105	115.5	0	0	1	-360	360	0.0000	0.0000	0.0000	0.0000	0.0000	0.0000	0.0000	0.0000;
	1901	3341	0.0082	0.0186	0.0017	105	105	115.5	0	0	1	-360	360	0.0000	0.0000	0.0000	0.0000	0.0000	0.0000	0.0000	0.0000;
	1901	50619	0.0274	0.0606	0.0057	68	105	115.5	0	0	1	-360	360	0.0000	0.0000	0.0000	0.0000	0.0000	0.0000	0.0000	0.0000;
	1921	1961	0.0245	0.0543	0.0182	105	105	115.5	0	0	1	-360	360	0.0000	0.0000	0.0000	0.0000	0.0000	0.0000	0.0000	0.0000;
	1921	4341	0.0035	0.0079	0.0008	31	105	115.5	0	0	1	-360	360	0.0000	0.0000	0.0000	0.0000	0.0000	0.0000	0.0000	0.0000;
	1921	4351	0.0033	0.0076	0.0007	31	105	115.5	0	0	1	-360	360	0.0000	0.0000	0.0000	0.0000	0.0000	0.0000	0.0000	0.0000;
	1921	4721	0.01	0.0236	0.0033	105	105	115.5	0	0	1	-360	360	0.0000	0.0000	0.0000	0.0000	0.0000	0.0000	0.0000	0.0000;
	1921	5481	0.0272	0.0615	0.0058	105	105	115.5	0	0	1	-360	360	0.0000	0.0000	0.0000	0.0000	0.0000	0.0000	0.0000	0.0000;
	1931	4371	0.0176	0.0907	0.0099	178	178	195.8	0	0	1	-360	360	0.0000	0.0000	0.0000	0.0000	0.0000	0.0000	0.0000	0.0000;
	1931	4981	0.0126	0.065	0.0071	178	178	195.8	0	0	1	-360	360	0.0000	0.0000	0.0000	0.0000	0.0000	0.0000	0.0000	0.0000;
	1941	2401	0.0151	0.0483	0.005	136	136	149.6	0	0	1	-360	360	0.0000	0.0000	0.0000	0.0000	0.0000	0.0000	0.0000	0.0000;
	1941	4201	0.0325	0.1041	0.0107	136	136	149.6	0	0	1	-360	360	0.0000	0.0000	0.0000	0.0000	0.0000	0.0000	0.0000	0.0000;
	1941	4481	0.0436	0.1396	0.0143	136	136	149.6	0	0	1	-360	360	0.0000	0.0000	0.0000	0.0000	0.0000	0.0000	0.0000	0.0000;
	1961	2081	0.0006	0.0013	0.0002	105	105	115.5	0	0	1	-360	360	0.0000	0.0000	0.0000	0.0000	0.0000	0.0000	0.0000	0.0000;
	1961	3201	0.0117	0.0259	0.0035	105	105	115.5	0	0	1	-360	360	0.0000	0.0000	0.0000	0.0000	0.0000	0.0000	0.0000	0.0000;
	1971	2731	0.0007	0.0032	0.0147	130	130	143	0	0	1	-360	360	0.0000	0.0000	0.0000	0.0000	0.0000	0.0000	0.0000	0.0000;
	1971	16110	0.004	0.0205	0.0023	178	178	195.8	0	0	1	-360	360	0.0000	0.0000	0.0000	0.0000	0.0000	0.0000	0.0000	0.0000;
	1981	2821	0.0069	0.0355	0.0039	178	178	195.8	0	0	1	-360	360	0.0000	0.0000	0.0000	0.0000	0.0000	0.0000	0.0000	0.0000;
	1981	79016	0.0472	0.1068	0.0102	106	106	106	0	0	1	-360	360	0.0000	0.0000	0.0000	0.0000	0.0000	0.0000	0.0000	0.0000;
	1991	3641	0.0034	0.0091	0.0412	91	116	127.6	0	0	1	-360	360	0.0000	0.0000	0.0000	0.0000	0.0000	0.0000	0.0000	0.0000;
	2001	2141	0.0212	0.1102	0.0213	178	178	195.8	0	0	1	-360	360	0.0000	0.0000	0.0000	0.0000	0.0000	0.0000	0.0000	0.0000;
	2001	5441	0.0064	0.0326	0.0547	178	178	195.8	0	0	1	-360	360	0.0000	0.0000	0.0000	0.0000	0.0000	0.0000	0.0000	0.0000;
...
];

%%%% generator data
%%	bus	Pg	Qg	Qmax	Qmin	Vg	mBase	status	Pmax	Pmin	mu_Pmax	mu_Pmin	mu_Qmax	mu_Qmin
mpc.gen = [
	10271	21	0	15	-7	1.05	34	0	21	5	0	0	0	0;
	10272	22	0	15	-7	1.05	34	0	22	5	0	0	0	0;
	10273	19	0	15	-7	1.05	34	0	19	5	0	0	0	0;
	10274	24	0	15	-7	1.05	34	0	24	5	0	0	0	0;
	10275	2.25	0	0	0	1.05	8.35	1	7.5	0	0	0	0	0;
	10276	0.198	0	0	0	1.05	0.85	1	0.66	0	0	0	0	0;
	10470	300	24.076	270	-170	1.075	500	0	443	222	0	0	0	0;
	10471	270	0	159	-75	1.075	318.8	0	270	40	0	0	0	0;
	10472	90	0	60	-30	1.075	100.9	0	90	13	0	0	0	0;
	10473	90	0	60	-30	1.075	100.9	0	90	13	0	0	0	0;
	10474	90	0	60	-30	1.075	100.9	0	90	13	0	0	0	0;
	10671	1.44	-1.94	-1.94	-1.94	1.04	4.8	1	4.8	0	0	0	0	0;
	10672	1.5	-2	-2	-2	1.04	6	1	5	0	0	0	0	0;
	10673	0.36	-0.48	-0.48	-0.48	1.05	1.2	1	1.2	0	0	0	0	0;
	10674	1.38	-1.77	-1.77	-2.3	1.04	4.6	1	4.6	0	0	0	0	0;
	11204	1	0	0	0	1	1.6	0	1	0	0	0	0	0;
	11271	7.56	0	0	0	1.04	28	1	25.2	0	0	0	0	0;
	11370	6.6	-2.883	5.59	-5.59	1.05	30	1	22	0	0	0	0	0;
	11371	15.3	-10.116	20	-20	1.05	66	1	51	0	0	0	0	0;
	11374	1.2	-0.607	1.31	-1.31	1.05	4	1	4	0	0	0	0	0;
	11375	1.08	-0.556	1.18	-1.18	1.05	4	1	3.6	0	0	0	0	0;
	12371	9.45	-7	7	-7	1.05	32	1	31.5	0	0	0	0	0;
	12372	3.15	0	0	0	1.05	10	1	10.5	0	0	0	0	0;
	12571	5.835	0	0	0	1.05	25.05	1	19.45	0	0	0	0	0;
	12572	0.9	-0.99	0.99	-0.99	1.05	3.34	1	3	0	0	0	0	0;
	12573	2.7	-2.96	2.96	-2.96	1.05	10.02	1	9	0	0	0	0	0;
	12871	0.69	-0.66	0	-0.66	1.05	2.3	1	2.3	0	0	0	0	0;
	12872	2.52	-2.76	0	-2.76	1.05	9.2	1	8.4	0	0	0	0	0;
	12873	5.865	0	0	0	1.05	20.7	1	19.55	0	0	0	0	0;
	12874	2.55	0	0	0	1.05	8.5	1	8.5	0	0	0	0	0;
	13170	7.185	0	0	0	1.05	25.3	1	23.95	0	0	0	0	0;
	13171	3	0	0	0	1.05	10	1	10	0	0	0	0	0;
	13173	2.55	0	0	0	1.05	10.5	1	8.5	0	0	0	0	0;
	13174	10.755	0	0	0	1.05	36	1	35.85	0	0	0	0	0;
	13175	3.45	0	0	0	1.05	11.5	1	11.5	0	0	0	0	0;
	13176	5.4	0	0	0	1.05	18.75	1	18	0	0	0	0	0;
	13434	4.3	0	0	0	1	4.5	0	4.3	0	0	0	0	0;
	13471	0.198	0	0	0	1.05	0.66	1	0.66	0	0	0	0	0;
	13472	0.765	0	0	-0.84	1.05	2.7	1	2.55	0	0	0	0	0;
	13473	3	0	0	0	1.05	10	1	10	0	0	0	0	0;
	13474	1.8	0	0	0	1.05	6.25	1	6	0	0	0	0	0;
	13475	2.295	0	0	0	1.05	7.65	1	7.65	0	0	0	0	0;
	13476	3.57	0	0	0	1.05	11.5	1	11.9	0	0	0	0	0;
	13477	0.765	0	0	0	1.05	2.7	1	2.55	0	0	0	0	0;
	13479	1.02	0	0	0	1	3.4	1	3.4	0	0	0	0	0;
	14073	1.935	-2.4	-2.4	-2.4	1.04	7.611	1	6.45	0	0	0	0	0;
	14075	1	0	0	0	1	10	1	10	1	0	0	0	0;
	14471	1.2	0	0	0	1.04	4	1	4	0	0	0	0	0;
	14472	0.085	0	0	0	1	0.85	1	0.85	0	0	0	0	0;
	14604	4.8	0	0	0	1.05	7	0	4.8	0	0	0	0	0;
	14871	0.51	0	0	0	1.05	4.6	1	1.7	0	0	0	0	0;
	14902	450	0	279	-178	1.075	540	0	450	225	0	0	0	0;
	15171	13.8	0.935	15.12	-15.12	1.05	46	1	46	0	0	0	0	0;
	15172	3	-3.29	3.29	-3.29	1	10	1	10	0	0	0	0	0;
	15173	0.765	-0.84	0.84	-0.84	1	2.55	1	2.55	0	0	0	0	0;
	15174	6	-6.57	6.57	-6.57	1	20	1	20	0	0	0	0	0;
	15571	1.785	-1.96	1.96	-1.96	1	5.95	1	5.95	0	0	0	0	0;
	15572	5.4	-3.431	5.92	-5.92	1	18.75	1	18	0	0	0	0	0;
	15573	6	0	0	0	1.04	23	1	20	0	0	0	0	0;
	15771	0.594	-0.3	-0.3	-0.3	1.04	1.98	1	1.98	0	0	0	0	0;
	15772	0.9	-1.92	-1.92	-1.92	1.04	3	1	3	0	0	0	0	0;
	16371	1.02	0	0	0	1	3.4	1	3.4	0	0	0	0	0;
	16372	1.02	0	0	0	1	3.4	1	3.4	0	0	0	0	0;
	16373	2.04	0	0	0	1	6.8	1	6.8	0	0	0	0	0;
	16374	2.295	0	0	0	1	7.65	1	7.65	0	0	0	0	0;
	16375	1.188	0	0	0	1	4.25	1	3.96	0	0	0	0	0;
	16376	1.485	0	0	0	1	5.1	1	4.95	0	0	0	0	0;
	16377	2.7	0	0	0	1	9.2	1	9	0	0	0	0	0;
	16378	0.48	0	0	0	1	1.7	1	1.6	0	0	0	0	0;
	16379	0.087	0	0	0	1	0.323	1	0.29	0	0	0	0	0;
	16571	11.34	0	0	0	1.05	40	1	37.8	0	0	0	0	0;
	16670	1.35	-1.351	0	-3.07	1	4.5	1	4.5	0	0	0	0	0;
	16671	1.02	0	0	0	1.04	3.4	1	3.4	0	0	0	0	0;
	16672	0.477	-0.56	-0.56	-0.56	1.04	1.7	1	1.59	0	0	0	0	0;
	16674	5.61	0	0	0	1.04	18.7	1	18.7	0	0	0	0	0;
	16675	2.4	-2.65	-2.65	-2.65	1.04	8	1	8	0	0	0	0	0;
	16677	1.02	0	0	0	1	3.4	1	3.4	0	0	0	0	0;
	16679	1.02	0	0	0	1	3.4	1	3.4	0	0	0	0	0;
	16873	8	0	7	-1	1.05	11.5	0	8	2	0	0	0	0;
	17073	22.5	0	23	-25	1.05	35.5	0	22.5	5	0	0	0	0;
	17074	22.5	0	23	-25	1.05	35.5	0	22.5	5	0	0	0	0;
	17075	0.594	-0.8	-0.8	-0.8	1	1.98	1	1.98	0	0	0	0	0;
	17077	0.006	0	0	0	1	1.2	1	0.02	0	0	0	0	0;
	17671	10	0	7	-3	1.05	12.5	0	10	3	0	0	0	0;
	17672	10	0	7	-3	1.05	12.5	0	10	3	0	0	0	0;
	18271	1.275	-1	-1	-1	1	4.25	1	4.25	0	0	0	0	0;
	18471	1.497	0	0	0	1.04	5.2	1	4.99	0	0	0	0	0;
	18472	0.75	-0.82	0	-0.82	1	2.978	1	2.5	0	0	0	0	0;
	18901	58	0	30	-21.32	1.075	68.235	0	58	20	0	0	0	0;
	19081	0.765	0	0	0	1.04	2.55	1	2.55	0	0	0	0	0;
	19082	0.51	0	0	0	1.05	1.7	1	1.7	0	0	0	0	0;
	19083	1.497	0	0	0	1.04	6.9	1	4.99	0	0	0	0	0;
	19084	1.35	-1.5	-1.5	-1.5	1.04	4.6	1	4.5	0	0	0	0	0;
	19085	6.3	-7	-7	-7	1.04	23.824	1	21	0	0	0	0	0;
	19101	98.4	0	51	-36.17	1.075	108.24	0	98.4	34	0	0	0	0;
	19317	0	0	6	-6	1.05	6	0	0	0	0	0	0	0;
	19371	7.125	0	0	0	1.05	29.78	1	23.75	0	0	0	0	0;
	19372	3.315	0	0	0	1.05	11.05	1	11.05	0	0	0	0	0;
	19471	100	61.085	94	-50	1.075	153	1	133.5	60	0	0	0	0;
	19472	58.274	0	38	-23	1.075	66.625	0	58.274	19.7	0	0	0	0;
	19473	58.274	0	40	-23	1.075	66.625	0	58.274	19.7	0	0	0	0;
	19601	0.585	0	0	0	1	6.5	1	5.85	0	0	0	0	0;
	19771	12.75	0	0	0	1.05	46.875	1	42.5	0	0	0	0	0;
	19772	2.55	-2.679	2.79	-2.79	1.05	8.5	1	8.5	0	0	0	0	0;
	19773	9	-9.473	9.86	-9.86	1.05	38.714	1	30	0	0	0	0	0;
	19971	6	-6.7	6.7	-6.7	1.05	20.7	1	20	0	0	0	0	0;
	19972	0.69	0	0	0	1.05	2.3	1	2.3	0	0	0	0	0;
	19973	0.69	0	0	0	1.05	2.3	1	2.3	0	0	0	0	0;
	19974	4.83	-4	4	-4	1.05	16.1	1	16.1	0	0	0	0	0;
	21071	0.15	0	0	0	1.05	0.85	1	0.5	0	0	0	0	0;
	21371	8.55	-4.805	9.5	-9.5	1.05	31.73	1	28.5	0	0	0	0	0;
	21372	5.25	-2.934	5.8	-5.8	1.05	23.38	1	17.5	0	0	0	0	0;
	21871	0.51	0	0	0	1.01	1.7	1	1.7	0	0	0	0	0;
	21872	0.75	-0.99	-0.99	-1.28	1.01	2.7	1	2.5	0	0	0	0	0;
	21873	1.274	0	0	0	1	1.6	0	1.274	0	0	0	0	0;
	22272	5.1	-3.805	0	-5.59	1	16	1	17	0	0	0	0	0;
	22273	1.35	-0.929	0	-1.48	1	4	1	4.5	0	0	0	0	0;
	22274	1.782	-2.4	-2.4	-2.4	1	5.94	1	5.94	0	0	0	0	0;
	22275	1.275	0	0	0	1	4.25	1	4.25	0	0	0	0	0;
	22276	1.785	0	0	0	1	6.68	1	5.95	0	0	0	0	0;
	22277	0.915	-0.99	0	-0.99	1	3.34	1	3.05	0	0	0	0	0;
	22278	1.386	-1	-1	-1	1	4.62	1	4.62	0	0	0	0	0;
	22292	6	0	0	0	1	6	0	6	0	0	0	0	0;
	22371	17.85	0	0	0	1.05	59.5	1	59.5	0	0	0	0	0;
	22471	0.765	0	0	0	1.04	2.55	1	2.55	0	0	0	0	0;
	22472	1.275	0	0	0	1.04	4.25	1	4.25	0	0	0	0	0;
	22473	1.275	-1.5	-1.5	-1.5	1.01	4.25	1	4.25	0	0	0	0	0;
	22671	52.1	0	32.6	-22.7	1.05	62	0	52.1	1.2	0	0	0	0;
	22672	52.1	0	32.6	-22.7	1.05	62	0	52.1	1.2	0	0	0	0;
	22673	14.56	0	10.92	-3.64	1.05	18.2	0	14.56	0	0	0	0	0;
	22871	0.72	-0.84	-0.84	-1.09	1.01	2.4	1	2.4	0	0	0	0	0;
	23671	7.2	-4.182	0	-7.89	1.05	25	1	24	0	0	0	0	0;
	25604	1.6	0	0	0	1	1.7	0	1.6	0	0	0	0	0;
	26771	7.8	-10	10	-10	1.05	26	1	26	0	0	0	0	0;
	26772	0.6	0	0	0	1.075	6	1	6	6	0	0	0	0;
	26773	6.6	-10	10	-10	1.05	22	1	22	0	0	0	0	0;
	26774	0.6	0	0	0	1.075	6	1	6	6	0	0	0	0;
	27071	0.24	0	0	0	1	0.8	1	0.8	0	0	0	0	0;
	27204	4	0	1	-1	1.04	5	0	4	0	0	0	0	0;
	27361	0	0	12.3	-12.3	1.05	12.3	0	0	0	0	0	0	0;
	27371	3.84	0	0	0	1.05	14.45	1	12.8	0	0	0	0	0;
	27372	5.1	0	0	0	1.05	18.75	1	17	0	0	0	0	0;
	27374	1.8	-1.97	-1.97	-1.97	1.05	6.25	1	6	0	0	0	0	0;
	27474	300	64.867	285	-182	1.075	570.6	1	469.5	235	0	0	0	0;
	27771	12.368	-12.439	13	-13.61	1.05	41.4	1	41.225	0	0	0	0	0;
	27772	3	-2	-2	-2	1	11.912	1	10	0	0	0	0	0;
	27773	1.5	-1	-1	-1	1	4.6	1	5	0	0	0	0	0;
	27774	5.4	-3	-3	-3	1.05	18.4	1	18	0	0	0	0	0;
	27871	0.99	-0.7	-0.7	-0.7	1.04	3.3	1	3.3	0	0	0	0	0;
	28071	4.5	-6	-6	-6	1.05	15	1	15	0	0	0	0	0;
	28271	0.9	-1.2	-1.2	-1.2	1.04	3.34	1	3	0	0	0	0	0;
	28571	300	56.821	282.1	-190	1.075	535.5	1	450.5	110.1	0	0	0	0;
	28871	1.8	-1.97	1.97	-1.97	1	6.68	1	6	0	0	0	0	0;
	28872	3.15	0	0	0	1	13.8	1	10.5	0	0	0	0	0;
	28873	4.95	-5.42	5.42	-5.42	1	18.4	1	16.5	0	0	0	0	0;
	28874	7.8	0	0	0	1	27.6	1	26	0	0	0	0	0;
	29671	123	0	107	-53	1.075	150	0	123	40	0	0	0	0;
	29672	138	-6.052	181	-87	1.075	288	1	236.2	138	0	0	0	0;
	29673	194	42.485	255	-170	1.075	473	1	400	194	0	0	0	0;
	30671	15	0	13	-4	1.05	21.4	0	15	4	0	0	0	0;
	30671	4	0	3	-1	1.05	5.7	0	4	1	0	0	0	0;
	31071	0.765	0	0	0	1.01	2.55	1	2.55	0	0	0	0	0;
	31072	0.255	-0.28	-0.28	-0.36	1.01	0.85	1	0.85	0	0	0	0	0;
	31074	0.765	0	0	0	1.04	2.55	1	2.55	0	0	0	0	0;
	31271	300	210.205	295	-100	1.075	500	1	409.9	163	0	0	0	0;
	32171	8.925	-9.78	9.78	-9.78	1.05	36	1	29.75	0	0	0	0	0;
	32271	0.24	0	0	0	1.05	0.8	1	0.8	0	0	0	0	0;
	32404	4.26	0	1	-1	1.04	4.8	0	4.26	0	0	0	0	0;
	32570	13.305	-4.6	4.6	-4.6	1	46.875	1	44.35	0	0	0	0	0;
	32576	3.36	-3.448	0	-5.03	1	11.2	1	11.2	0	0	0	0	0;
	32577	1.08	-1.087	0	-5.03	1	3.6	1	3.6	0	0	0	0	0;
	32578	1.25	0	0	0	1	1.25	0	1.25	0	0	0	0	0;
	32604	7.5	0	1	-1	1.05	8.5	0	7.5	2	0	0	0	0;
	32604	0.18	0	0	0	1.05	0.2	0	0.18	0	0	0	0	0;
	33071	1.35	-0.425	0	-1.48	1	4	1	4.5	0	0	0	0	0;
	33072	2.805	0	0	0	1	9.35	1	9.35	0	0	0	0	0;
	33971	26.1	-20.005	28.6	-28.6	1.05	104.23	1	87	0	0	0	0	0;
	35071	1.38	-1.64	-1.64	-2.13	1.01	4.6	1	4.6	0	0	0	0	0;
	35074	100	-8.039	60	-39	1.05	121.1	1	103.3	70	0	0	0	0;
	35871	0.765	0	0	0	1.04	2.55	1	2.55	0	0	0	0	0;
	35872	0.735	0	0	0	1.04	2.55	1	2.45	0	0	0	0	0;
	35873	0.96	0	0	0	1.04	3.2	1	3.2	0	0	0	0	0;
	35875	4.5	-6	-6	-6	1.04	17.7	1	15	0	0	0	0	0;
	35876	3.564	-4.8	-4.8	-4.8	1.04	11.88	1	11.88	0	0	0	0	0;
	35877	1.497	0	0	0	1.04	5.4	1	4.99	0	0	0	0	0;
	36271	10.8	-11.163	12	-12	1.05	36	1	36	0	0	0	0	0;
	36272	1.9	-6.977	7.5	-75	1.05	20	1	19	0	0	0	0	0;
	36471	4.335	0	0	0	1.05	15	1	14.45	0	0	0	0	0;
	36472	1.2	-1.31	-1.31	-1.7	1.04	4.6	1	4	0	0	0	0	0;
	36473	1.38	0	0	0	1	4.6	1	4.6	0	0	0	0	0;
	36474	1.08	-1.18	-1.18	-1.53	1.04	4	1	3.6	0	0	0	0	0;
	36475	1.2	-1.2	-1.2	-1.2	1.04	4.6	1	4	0	0	0	0	0;
	36476	4.44	2.794	4	-4	1.04	17.868	1	14.8	0	0	0	0	0;
	38071	0.48	-0.56	-0.56	-0.56	1.01	1.6	1	1.6	0	0	0	0	0;
	38244	1	0	0	0	1	6.5	0	1	0	0	0	0	0;
	38271	3.15	0	0	0	1.04	11.69	1	10.5	0	0	0	0	0;
	38272	1.35	0	0	0	1.04	5.01	1	4.5	0	0	0	0	0;
	38273	2.25	0	0	0	1.05	8.35	1	7.5	0	0	0	0	0;
	38870	7.59	0	0	0	1.04	25.3	1	25.3	0	0	0	0	0;
	38871	2.625	-1.644	0	-2.88	1	10	1	8.75	0	0	0	0	0;
...
];

%%%% generator cost data
%%	1	startup	shutdown	n	x1	y1	...	xn	yn
%%	2	startup	shutdown	n	c(n-1)	...	c0
mpc.gencost = [
	1	0	0	3	0.01	0.1	10;
	1	0	0	3	0.01	0.1	10;
	1	0	0	3	0.01	0.1	10;
	1	0	0	3	0.01	0.1	10;
	1	0	0	3	0.01	0.1	10;
	1	0	0	3	0.01	0.1	10;
	1	0	0	3	0.01	0.1	10;
	1	0	0	3	0.01	0.1	10;
	1	0	0	3	0.01	0.1	10;
	1	0	0	3	0.01	0.1	10;
	1	0	0	3	0.01	0.1	10;
	1	0	0	3	0.01	0.1	10;
	1	0	0	3	0.01	0.1	10;
	1	0	0	3	0.01	0.1	10;
	1	0	0	3	0.01	0.1	10;
	1	0	0	3	0.01	0.1	10;
	1	0	0	3	0.01	0.1	10;
	1	0	0	3	0.01	0.1	10;
	1	0	0	3	0.01	0.1	10;
	1	0	0	3	0.01	0.1	10;
	1	0	0	3	0.01	0.1	10;
	1	0	0	3	0.01	0.1	10;
	1	0	0	3	0.01	0.1	10;
	1	0	0	3	0.01	0.1	10;
	1	0	0	3	0.01	0.1	10;
	1	0	0	3	0.01	0.1	10;
	1	0	0	3	0.01	0.1	10;
	1	0	0	3	0.01	0.1	10;
	1	0	0	3	0.01	0.1	10;
	1	0	0	3	0.01	0.1	10;
	1	0	0	3	0.01	0.1	10;
	1	0	0	3	0.01	0.1	10;
	1	0	0	3	0.01	0.1	10;
	1	0	0	3	0.01	0.1	10;
	1	0	0	3	0.01	0.1	10;
	1	0	0	3	0.01	0.1	10;
	1	0	0	3	0.01	0.1	10;
	1	0	0	3	0.01	0.1	10;
	1	0	0	3	0.01	0.1	10;
	1	0	0	3	0.01	0.1	10;
	1	0	0	3	0.01	0.1	10;
	1	0	0	3	0.01	0.1	10;
	1	0	0	3	0.01	0.1	10;
	1	0	0	3	0.01	0.1	10;
	1	0	0	3	0.01	0.1	10;
	1	0	0	3	0.01	0.1	10;
	1	0	0	3	0.01	0.1	10;
	1	0	0	3	0.01	0.1	10;
	1	0	0	3	0.01	0.1	10;
	1	0	0	3	0.01	0.1	10;
	1	0	0	3	0.01	0.1	10;
	1	0	0	3	0.01	0.1	10;
	1	0	0	3	0.01	0.1	10;
	1	0	0	3	0.01	0.1	10;
	1	0	0	3	0.01	0.1	10;
	1	0	0	3	0.01	0.1	10;
	1	0	0	3	0.01	0.1	10;
	1	0	0	3	0.01	0.1	10;
	1	0	0	3	0.01	0.1	10;
	1	0	0	3	0.01	0.1	10;
	1	0	0	3	0.01	0.1	10;
	1	0	0	3	0.01	0.1	10;
	1	0	0	3	0.01	0.1	10;
	1	0	0	3	0.01	0.1	10;
	1	0	0	3	0.01	0.1	10;
	1	0	0	3	0.01	0.1	10;
	1	0	0	3	0.01	0.1	10;
	1	0	0	3	0.01	0.1	10;
	1	0	0	3	0.01	0.1	10;
	1	0	0	3	0.01	0.1	10;
	1	0	0	3	0.01	0.1	10;
	1	0	0	3	0.01	0.1	10;
	1	0	0	3	0.01	0.1	10;
	1	0	0	3	0.01	0.1	10;
	1	0	0	3	0.01	0.1	10;
	1	0	0	3	0.01	0.1	10;
	1	0	0	3	0.01	0.1	10;
	1	0	0	3	0.01	0.1	10;
	1	0	0	3	0.01	0.1	10;
	1	0	0	3	0.01	0.1	10;
	1	0	0	3	0.01	0.1	10;
	1	0	0	3	0.01	0.1	10;
	1	0	0	3	0.01	0.1	10;
	1	0	0	3	0.01	0.1	10;
	1	0	0	3	0.01	0.1	10;
	1	0	0	3	0.01	0.1	10;
	1	0	0	3	0.01	0.1	10;
	1	0	0	3	0.01	0.1	10;
	1	0	0	3	0.01	0.1	10;
	1	0	0	3	0.01	0.1	10;
	1	0	0	3	0.01	0.1	10;
	1	0	0	3	0.01	0.1	10;
	1	0	0	3	0.01	0.1	10;
	1	0	0	3	0.01	0.1	10;
	1	0	0	3	0.01	0.1	10;
	1	0	0	3	0.01	0.1	10;
	1	0	0	3	0.01	0.1	10;
	1	0	0	3	0.01	0.1	10;
	1	0	0	3	0.01	0.1	10;
	1	0	0	3	0.01	0.1	10;
	1	0	0	3	0.01	0.1	10;
	1	0	0	3	0.01	0.1	10;
	1	0	0	3	0.01	0.1	10;
	1	0	0	3	0.01	0.1	10;
	1	0	0	3	0.01	0.1	10;
	1	0	0	3	0.01	0.1	10;
	1	0	0	3	0.01	0.1	10;
	1	0	0	3	0.01	0.1	10;
	1	0	0	3	0.01	0.1	10;
	1	0	0	3	0.01	0.1	10;
	1	0	0	3	0.01	0.1	10;
	1	0	0	3	0.01	0.1	10;
	1	0	0	3	0.01	0.1	10;
	1	0	0	3	0.01	0.1	10;
	1	0	0	3	0.01	0.1	10;
	1	0	0	3	0.01	0.1	10;
	1	0	0	3	0.01	0.1	10;
	1	0	0	3	0.01	0.1	10;
	1	0	0	3	0.01	0.1	10;
	1	0	0	3	0.01	0.1	10;
	1	0	0	3	0.01	0.1	10;
	1	0	0	3	0.01	0.1	10;
	1	0	0	3	0.01	0.1	10;
	1	0	0	3	0.01	0.1	10;
	1	0	0	3	0.01	0.1	10;
	1	0	0	3	0.01	0.1	10;
	1	0	0	3	0.01	0.1	10;
	1	0	0	3	0.01	0.1	10;
	1	0	0	3	0.01	0.1	10;
	1	0	0	3	0.01	0.1	10;
	1	0	0	3	0.01	0.1	10;
	1	0	0	3	0.01	0.1	10;
	1	0	0	3	0.01	0.1	10;
	1	0	0	3	0.01	0.1	10;
	1	0	0	3	0.01	0.1	10;
	1	0	0	3	0.01	0.1	10;
	1	0	0	3	0.01	0.1	10;
	1	0	0	3	0.01	0.1	10;
	1	0	0	3	0.01	0.1	10;
	1	0	0	3	0.01	0.1	10;
	1	0	0	3	0.01	0.1	10;
	1	0	0	3	0.01	0.1	10;
	1	0	0	3	0.01	0.1	10;
	1	0	0	3	0.01	0.1	10;
	1	0	0	3	0.01	0.1	10;
	1	0	0	3	0.01	0.1	10;
	1	0	0	3	0.01	0.1	10;
	1	0	0	3	0.01	0.1	10;
	1	0	0	3	0.01	0.1	10;
	1	0	0	3	0.01	0.1	10;
	1	0	0	3	0.01	0.1	10;
	1	0	0	3	0.01	0.1	10;
	1	0	0	3	0.01	0.1	10;
	1	0	0	3	0.01	0.1	10;
	1	0	0	3	0.01	0.1	10;
	1	0	0	3	0.01	0.1	10;
	1	0	0	3	0.01	0.1	10;
	1	0	0	3	0.01	0.1	10;
	1	0	0	3	0.01	0.1	10;
	1	0	0	3	0.01	0.1	10;
	1	0	0	3	0.01	0.1	10;
	1	0	0	3	0.01	0.1	10;
	1	0	0	3	0.01	0.1	10;
	1	0	0	3	0.01	0.1	10;
	1	0	0	3	0.01	0.1	10;
	1	0	0	3	0.01	0.1	10;
	1	0	0	3	0.01	0.1	10;
	1	0	0	3	0.01	0.1	10;
	1	0	0	3	0.01	0.1	10;
	1	0	0	3	0.01	0.1	10;
	1	0	0	3	0.01	0.1	10;
	1	0	0	3	0.01	0.1	10;
	1	0	0	3	0.01	0.1	10;
	1	0	0	3	0.01	0.1	10;
	1	0	0	3	0.01	0.1	10;
	1	0	0	3	0.01	0.1	10;
	1	0	0	3	0.01	0.1	10;
	1	0	0	3	0.01	0.1	10;
	1	0	0	3	0.01	0.1	10;
	1	0	0	3	0.01	0.1	10;
	1	0	0	3	0.01	0.1	10;
	1	0	0	3	0.01	0.1	10;
	1	0	0	3	0.01	0.1	10;
	1	0	0	3	0.01	0.1	10;
	1	0	0	3	0.01	0.1	10;
	1	0	0	3	0.01	0.1	10;
	1	0	0	3	0.01	0.1	10;
	1	0	0	3	0.01	0.1	10;
	1	0	0	3	0.01	0.1	10;
	1	0	0	3	0.01	0.1	10;
	1	0	0	3	0.01	0.1	10;
	1	0	0	3	0.01	0.1	10;
	1	0	0	3	0.01	0.1	10;
	1	0	0	3	0.01	0.1	10;
	1	0	0	3	0.01	0.1	10;
	1	0	0	3	0.01	0.1	10;
	1	0	0	3	0.01	0.1	10;
	1	0	0	3	0.01	0.1	10;
	1	0	0	3	0.01	0.1	10;
	1	0	0	3	0.01	0.1	10;
...
];
